.SUBCKT 2N5568    1    2   3
* CONNECTIONS:    MT2  G  MT1
QN1 5 4 3 NOUT
QN2 11 6 7 NOUT
QP1 6 11 3 POUT
QP2 4 5 7 POUT
DF 4 5 DZ OFF
DR 6 11 DZ OFF
RF 6 4 40MEG
RT2 7 1 52.8M
RH 6 7 75
RGP 8 3 54.5
RG 8 2 26.4
RS 4 8 52.6
DN 9 2 DIN
RN 9 3 27.8
GNN 6 7 9 3 38.8M
GNP 4 5 9 3 51.2M
DP 2 10 DIP
RP 3 10 16.2
GP 7 6 10 3 26.1M
.Model Din D (IS=53.5F)
.Model Dip D (IS=53.5F N=1.19)
.Model Dz  D (IS=53.5F N=1.5 IBV=10u BV=400)
.Model Pout PNP (IS=53.5F BF=5 CJE=235P TF=25.5u)
.Model Nout NPN (IS=53.5F BF=20 CJE=235P CJC=46.9P TF=1.7u)
.ENDS